OPT_V10/Two_days_MYC3/powerflow_results_t26.txt
Pandapower Network Debug Info
==================================================

BUS:
       vm_pu  va_degree      p_mw    q_mvar
0   0.992326   0.128717  0.001179  0.001073
1   0.987503   0.234051  0.001563  0.002381
2   0.983266   0.334532  0.001950  0.003403
3   0.988282   0.189493  0.002966  0.003871
4   0.999879   0.000178  0.010884  0.008908
5   0.999865   0.000140  0.012403  0.007225
6   0.999853   0.000155  0.014354  0.011724
7   0.999925   0.000245  0.000000  0.000000
8   0.999925   0.000251  0.000000  0.000000
9   1.000000   0.000000 -0.045468 -0.043700
10  1.000000   0.000006  0.000000  0.000000
--------------------------------------------------

LINE:
   p_from_mw  q_from_mvar   p_to_mw  q_to_mvar         pl_mw       ql_mvar  i_from_ka   i_to_ka      i_ka  vm_from_pu  va_from_degree  vm_to_pu  va_to_degree  loading_percent
0   0.045458     0.039700 -0.045454  -0.039698  3.562866e-06  2.778025e-06   0.002323  0.002323  0.002323    1.000000        0.000006  0.999925      0.000245         1.009999
1   0.037644     0.027859 -0.037642  -0.027858  1.696187e-06  1.322545e-06   0.001803  0.001803  0.001803    0.999925        0.000245  0.999879      0.000178         0.783769
2   0.007800     0.010839 -0.007717  -0.010774  8.341990e-05  6.504387e-05   0.019276  0.019276  0.019276    0.999925        0.000251  0.992326      0.128717         8.380948
3  -0.026757    -0.018949  0.026757   0.018949  3.718610e-07  2.899462e-07   0.001262  0.001262  0.001262    0.999865        0.000140  0.999879      0.000178         0.548762
4  -0.014354    -0.011724  0.014354   0.011724  1.680288e-07  1.310148e-07   0.000713  0.000713  0.000713    0.999853        0.000155  0.999865      0.000140         0.310190
5  -0.003528    -0.005796  0.003556   0.005817  2.792922e-05  2.177687e-05   0.009917  0.009917  0.009917    0.987503        0.234051  0.992326      0.128717         4.311791
6  -0.002966    -0.003871  0.002982   0.003883  1.625592e-05  1.267501e-05   0.007122  0.007122  0.007122    0.988282        0.189493  0.992326      0.128717         3.096505
7  -0.001950    -0.003403  0.001965   0.003414  1.439631e-05  1.122504e-05   0.005758  0.005758  0.005758    0.983266        0.334532  0.987503      0.234051         2.503516
--------------------------------------------------

TRAFO:
    p_hv_mw  q_hv_mvar   p_lv_mw  q_lv_mvar    pl_mw  ql_mvar   i_hv_ka   i_lv_ka  vm_hv_pu  va_hv_degree  vm_lv_pu  va_lv_degree  loading_percent
0  0.007810   0.011839 -0.007800  -0.010839  0.00001    0.001  0.000546  0.019276  0.999925      0.000245  0.999925      0.000251         0.141840
1  0.045468   0.043700 -0.045458  -0.039700  0.00001    0.004  0.000520  0.002323  1.000000      0.000000  1.000000      0.000006         0.157659
--------------------------------------------------
